data_test
_space_group_crystal_system        'orthorhombic'
_space_group_IT_number             61
_space_group_name_H-M_alt          'P b c a'
_space_group_name_Hall             '-P 2ac 2ab'
loop_
  _space_group_symop_id
  _space_group_symop_operation_xyz
 1 +X,+Y,+Z
 2 1/2-X,-Y,1/2+Z
 3 1/2+X,1/2-Y,-Z
 4 -X,1/2+Y,1/2-Z
 5 -X,-Y,-Z
 6 1/2+X,+Y,1/2-Z
 7 1/2-X,1/2+Y,+Z
 8 +X,1/2-Y,1/2+Z

_cell_length_a                     12.6890(2)
_cell_length_b                     7.5446(1)
_cell_length_c                     18.7176(4)
_cell_angle_alpha                  90
_cell_angle_beta                   90
_cell_angle_gamma                  90
_cell_volume                       1791.90(5)
_cell_formula_units_Z              8
loop_
  _atom_site_label
  _atom_site_type_symbol
  _atom_site_fract_x
  _atom_site_fract_y
  _atom_site_fract_z
  _atom_site_U_iso_or_equiv
  _atom_site_adp_type
  _atom_site_occupancy
  _atom_site_refinement_flags_posn
  _atom_site_site_symmetry_order
  _atom_site_disorder_group
 Cu01 Cu 0.76874(2) 0.57117(3) 0.312920(13) 0.02857(13) Uani 1 . 1 .
 Cl02 Cl 0.76593(4) 0.36384(7) 0.22458(3) 0.03376(17) Uani 1 . 1 .
 S003 S 0.75502(4) 0.71036(6) 0.42083(3) 0.02849(16) Uani 1 . 1 .
 Cl04 Cl 0.94628(4) 0.60627(6) 0.31953(2) 0.04006(14) Uani 1 . 1 .
 S005 S 0.55675(3) 0.78339(4) 0.504000(17) 0.03933(11) Uani 1 . 1 .
 N006 N 0.56108(6) 0.62721(10) 0.37985(4) 0.02883(16) Uani 1 . 1 .
 N007 N 0.60964(7) 0.55293(11) 0.31853(4) 0.03013(18) Uani 1 . 1 .
 H00a H 0.5786(3) 0.6133(5) 0.2743(4) 0.060(4) Uani 1 R 1 .
 H00b H 0.58956(18) 0.4216(10) 0.31601(5) 0.058(4) Uani 1 R 1 .
 C008 C 0.62198(7) 0.70063(10) 0.42958(4) 0.02525(17) Uani 1 . 1 .
 C009 C 0.66147(10) 0.86622(17) 0.55893(6) 0.0421(3) Uani 1 . 1 .
 H00c H 0.7053(6) 0.9603(12) 0.5301(3) 0.096(6) Uani 1 R 1 .
 H00d H 0.6297(2) 0.9259(13) 0.6048(4) 0.110(6) Uani 1 R 1 .
 H00e H 0.7109(6) 0.7610(7) 0.5740(5) 0.091(5) Uani 1 R 1 .
 C00A C 0.44576(9) 0.62866(18) 0.38035(7) 0.0443(3) Uani 1 . 1 .
 H00f H 0.4195(2) 0.7406(13) 0.3569(8) 0.158(10) Uani 1 R 1 .
 H00g H 0.4185(2) 0.5226(14) 0.3533(8) 0.120(6) Uani 1 R 1 .
 H00h H 0.4197(2) 0.624(2) 0.4312(4) 0.130(8) Uani 1 R 1 .

loop_
  _atom_site_aniso_label
  _atom_site_aniso_U_11
  _atom_site_aniso_U_22
  _atom_site_aniso_U_33
  _atom_site_aniso_U_23
  _atom_site_aniso_U_13
  _atom_site_aniso_U_12
 Cu01 0.0264(2) 0.0319(2) 0.0274(2) -0.00698(11) 0.00228(11) 0.00053(11)
 Cl02 0.0444(4) 0.0283(3) 0.0286(3) -0.0053(2) 0.0074(2) -0.0022(2)
 S003 0.0263(3) 0.0339(3) 0.0253(3) -0.0055(2) -0.0001(2) -0.0008(2)
 Cl04 0.0240(3) 0.0612(3) 0.0350(3) -0.00592(18) -0.00007(17) 0.00416(18)
 S005 0.03329(18) 0.05187(19) 0.03284(18) -0.01102(13) 0.00666(13) 0.00351(13)
 N006 0.0242(4) 0.0338(4) 0.0285(4) -0.0028(3) -0.0010(3) 0.0011(3)
 N007 0.0270(4) 0.0360(4) 0.0274(4) -0.0063(3) -0.0038(3) 0.0016(3)
 H00a 0.049(10) 0.093(10) 0.038(8) 0.006(7) 0.008(7) 0.028(8)
 H00b 0.079(13) 0.050(8) 0.045(8) -0.028(6) 0.007(7) -0.022(7)
 C008 0.0259(4) 0.0255(4) 0.0244(4) -0.0007(3) 0.0009(3) 0.0018(3)
 C009 0.0477(7) 0.0513(7) 0.0272(5) -0.0072(5) 0.0053(5) -0.0044(5)
 H00c 0.116(15) 0.108(12) 0.065(10) -0.006(9) 0.012(10) -0.058(11)
 H00d 0.081(13) 0.175(17) 0.073(10) -0.077(11) 0.014(9) -0.007(10)
 H00e 0.092(13) 0.090(11) 0.091(13) 0.007(10) -0.029(9) 0.008(10)
 C00A 0.0250(5) 0.0636(7) 0.0443(6) -0.0060(6) -0.0020(5) -0.0008(5)
 H00f 0.070(11) 0.139(15) 0.27(3) 0.128(18) 0.019(14) 0.029(11)
 H00g 0.06(1) 0.143(15) 0.159(15) -0.067(15) -0.020(11) -0.046(10)
 H00h 0.055(11) 0.28(3) 0.056(10) -0.006(14) -0.011(9) -0.012(12)
